! This is the input file for a short simulation of water

# Run_Name
gemc_nvt.out
!------------------------------------------------------------------------------

# Sim_Type
gemc
!------------------------------------------------------------------------------

# Nbr_Species
1
!------------------------------------------------------------------------------

# VDW_Style
lj cut_tail 7.0
lj cut_tail 7.0
!------------------------------------------------------------------------------

# Charge_Style
coul ewald 7.0 0.000001
coul ewald 7.0 0.000001
!------------------------------------------------------------------------------

# Mixing_Rule
lb
!------------------------------------------------------------------------------

# Seed_Info
21498 489625
!------------------------------------------------------------------------------

# Rcutoff_Low
0.85
!------------------------------------------------------------------------------

# Pair_Energy
false

# Molecule_Files
tip4p.mcf 768
!----------------------------------------------------------one line per species

# Box_Info
2
cubic
22.586

cubic
57.
!-------------------------------------------------------line 1: number of boxes
!--------------------------------------------------------------line 2: box type
!--------------------------------------------------------------line 3: box size

# Temperature_Info
300.0
300.0
!------------------------------------------------------------------------------

# Pressure_Info
1.0
1.0
!------------------------------------------------------------------------------

# Move_Probability_Info

# Prob_Translation
0.30
1.00
1.00

# Prob_Rotation
0.30
38.0
38.0

# Prob_Volume
0.04
300
300

# Prob_Swap
0.36
cbmc

# Done_Probability_Info
!---------------------one line for each box and one entry/line for each species
!-----------------------------------------each molecule moves per volume change

# Start_Type
read_config 384 liquid.inp.xyz
read_config 32 vapor.inp.xyz
!---------------------------------------make_config: one entry for each species
!-----------------------------read_config: one entry for each species, filename
!--------add_to_config: read_config arguments followed by make_config arguments
!----------------------------------------------------------checkpoint: filename

# Run_Type
equilibration 100 100
!-----------------------------Production: report success ratio every 100 sweeps


# Average_Info
1
!------------------------------------------------------------------------------

# Simulation_Length_Info
units        sweeps
prop_freq    10
coord_freq   10
block_avg_freq 10
run          400000
!------------------ 180 moves = 1 sweep; output every 10 sweeps; run 100 sweeps

# Property_Info 1
energy_total
enthalpy
pressure
volume
nmols
density
mass_density
!------------------------------------------------------------------------------

# Property_Info 2
energy_total
enthalpy
pressure
volume
nmols
density
mass_density
!------------------------------------------------------------------------------

# Fragment_Files
species1/frag1/frag1.dat  1
!---------------------------------------------------------one line per fragment

# CBMC_Info
kappa_ins 12
rcut_cbmc 6.5 6.5
!------------------------------------------------------------------------------

END
